examples/Powerflow Analysis/tamu2k_grid/test.m
function mpc = test
%TEST

%% MATPOWER Case Format : Version 2
mpc.version = '2';

%%-----  Power Flow Data  -----%%
%% system MVA base
mpc.baseMVA = 20;

%% bus data
%	bus_i	type	Pd	Qd	Gs	Bs	area	Vm	Va	baseKV	zone	Vmax	Vmin
mpc.bus = [
	0	1	20.78	5.89	0	0	1	0.998372	-22.3462	115	9	1.1	0.9;
	1	1	15.41	4.37	0	0	1	1.02291	-17.8585	115	9	1.1	0.9;
	2	1	0	0	0	0	1	1.0141	-17.5032	115	9	1.1	0.9;
	3	2	0	0	0	0	1	1.02005	-19.3247	230	9	1.1	0.9;
	4	1	0	0	0	0	1	1.01238	-15.9276	115	9	1.1	0.9;
	5	2	0	0	0	0	1	1.00599	-13.7815	13.8	9	1.1	0.9;
	6	1	7.01	1.99	0	-0.77	1	1.03	-18.2162	115	9	1.1	0.9;
	7	1	0	0	0	0	1	1.02615	-8.58995	115	9	1.1	0.9;
	8	2	0	0	0	0	1	1.0162	-5.33886	13.8	9	1.1	0.9;
	9	1	0	0	0	-3.33	1	1.03	-16.5896	115	9	1.1	0.9;
	10	2	0	0	0	0	1	1.03022	-14.8392	22	9	1.1	0.9;
	11	1	2.99	0.85	0	11.3	1	1.03	-25.191	115	9	1.1	0.9;
	12	1	29.23	8.28	0	0	1	1.01428	-15.1971	115	9	1.1	0.9;
	13	1	2.22	0.63	0	0	1	1.02099	-11.7776	115	9	1.1	0.9;
	14	1	7.51	2.13	0	0	1	1.03195	-17.9787	115	9	1.1	0.9;
	15	1	2.89	0.82	0	39.43	1	1.03	-15.3915	115	9	1.1	0.9;
	16	1	18.34	5.2	0	0	1	0.996559	-21.1078	115	9	1.1	0.9;
	17	1	0.07	0.02	0	0	1	1.0003	-19.8254	115	9	1.1	0.9;
	18	1	61.78	17.5	0	261.44	1	1.03	-22.082	115	9	1.1	0.9;
	19	1	0	0	0	71.32	1	1.03	-15.1575	115	9	1.1	0.9;
	20	2	0	0	0	0	1	1.00587	-8.62704	13.8	9	1.1	0.9;
	21	1	0	0	0	0	1	1.01661	-16.6531	115	9	1.1	0.9;
	22	2	0	0	0	0	1	1.01	-7.77476	13.8	9	1.1	0.9;
	23	1	63.04	17.86	0	0	1	0.999026	-18.8019	115	9	1.1	0.9;
	24	1	0	0	0	0	1	1.02427	-14.0817	115	9	1.1	0.9;
	25	2	0	0	0	0	1	1	-4.61708	13.8	9	1.1	0.9;
	26	1	101.21	28.68	0	88.7	1	1.03	-25.5841	115	9	1.1	0.9;
	27	1	10.01	2.84	0	0	1	1.01989	-18.2276	115	9	1.1	0.9;
	28	1	83.18	23.57	0	61.2	1	1.03	-24.6101	115	9	1.1	0.9;
	29	1	24.63	6.98	0	0	1	1.02256	-13.3008	115	9	1.1	0.9;
	30	1	9.25	2.62	0	0	1	1.02159	-17.4156	115	9	1.1	0.9;
	31	1	0	0	0	0	1	1.00988	-12.2347	115	9	1.1	0.9;
	32	2	0	0	0	61.95	1	1.03004	-16.769	230	9	1.1	0.9;
	33	1	0	0	0	0	1	1.01013	-14.1633	115	9	1.1	0.9;
	34	2	0	0	0	0	1	1.00042	-10.8778	13.8	9	1.1	0.9;
	35	1	13.6	3.85	0	0	1	1.00226	-12.4195	115	9	1.1	0.9;
	36	1	102.24	28.97	0	0	1	0.990493	-22.1747	115	9	1.1	0.9;
	37	1	0	0	0	0	1	1.02516	-7.64916	115	9	1.1	0.9;
	38	2	0	0	0	0	1	1.0048	-2.33133	22	9	1.1	0.9;
	39	1	44.36	12.57	0	0	1	1.00614	-20.1249	115	9	1.1	0.9;
	40	1	0	0	0	0	1	1.00661	-14.9184	115	9	1.1	0.9;
	41	2	0	0	0	0	1	1.00661	-14.9184	13.8	9	1.1	0.9;
	42	2	0	0	0	0	1	1	-11.6843	13.8	9	1.1	0.9;
	43	1	14.68	4.16	0	0	1	1.01792	-25.6916	115	9	1.1	0.9;
	44	1	98.56	27.93	0	0	1	1.00344	-24.0542	115	9	1.1	0.9;
	45	1	11.08	3.14	0	13.12	1	1.03	-22.3261	115	9	1.1	0.9;
	46	1	0	0	0	0	1	1.01175	-13.1298	115	9	1.1	0.9;
	47	2	0	0	0	0	1	1.01175	-13.1298	18	9	1.1	0.9;
	48	2	0	0	0	0	1	1.01175	-13.1298	18	9	1.1	0.9;
	49	2	0	0	0	0	1	1.00076	-8.08402	18	9	1.1	0.9;
	50	2	0	0	0	0	1	1	-6.60451	18	9	1.1	0.9;
	51	2	0	0	0	0	1	1.00416	-8.94709	18	9	1.1	0.9;
	52	2	0	0	0	0	1	1.02653	-17.1224	230	9	1.1	0.9;
	53	1	14.99	4.25	0	0	1	1.0132	-22.1326	115	9	1.1	0.9;
	54	1	3.98	1.13	0	0	1	1.00688	-18.4852	115	9	1.1	0.9;
	55	1	0	0	0	33.22	1	1.03	-21.5409	115	9	1.1	0.9;
	56	2	0	0	0	0	1	1.03	-21.5409	18	9	1.1	0.9;
	57	1	13.46	3.81	0	0	1	1.02675	-11.1878	115	9	1.1	0.9;
	58	2	0	0	0	0	1	1.02675	-11.1878	22	9	1.1	0.9;
	59	2	0	0	0	0	1	1.02675	-11.1878	22	9	1.1	0.9;
	60	1	0	0	0	0	1	1.01393	-17.0591	115	9	1.1	0.9;
	61	2	0	0	0	0	1	1.01393	-17.0591	13.8	9	1.1	0.9;
	62	2	0	0	0	0	1	1.01393	-17.0591	13.8	9	1.1	0.9;
	63	1	123.76	35.07	0	0	1	0.993391	-23.7293	115	9	1.1	0.9;
	64	1	0	0	0	0	1	1.00912	-14.7391	115	9	1.1	0.9;
	65	2	0	0	0	0	1	1	-7.23058	13.8	9	1.1	0.9;
	66	1	101.55	28.77	0	0	1	1.00407	-15.5007	115	9	1.1	0.9;
	67	1	59.4	16.83	0	0	1	0.993472	-16.2849	115	9	1.1	0.9;
	68	1	0	0	0	0	1	1.02867	-8.71349	115	9	1.1	0.9;
	69	2	0	0	0	0	1	1.04	-4.222	13.8	9	1.1	0.9;
	70	1	91.46	25.91	0	0	1	1.00402	-21.1126	115	9	1.1	0.9;
	71	2	0	0	0	0	1	1.01	-11.8352	18	9	1.1	0.9;
	72	2	0	0	0	0	1	1.01	-5.53743	18	9	1.1	0.9;
	73	2	0	0	0	0	1	1.01	-7.54851	18	9	1.1	0.9;
	74	2	0	0	0	0	1	1.01	-10.2802	18	9	1.1	0.9;
	75	2	0	0	0	0	1	1.00402	-21.1126	18	9	1.1	0.9;
	76	2	0	0	0	0	1	1.00402	-21.1126	18	9	1.1	0.9;
	77	2	0	0	0	0	1	1.01	-10.8005	18	9	1.1	0.9;
	78	2	0	0	0	0	1	1.02046	-37.6396	500	9	1.1	0.9;
	79	2	0	0	0	0	1	1.01	-10.2023	18	9	1.1	0.9;
	80	2	0	0	0	42.78	1	1.03	-18.4788	230	9	1.1	0.9;
	81	2	0	0	0	0	1	1.02717	-5.93672	115	9	1.1	0.9;
	82	1	39.95	11.32	0	32.03	1	1.03	-9.8632	115	9	1.1	0.9;
	83	2	0	0	0	0	1	1.03696	-16.3943	115	9	1.1	0.9;
	84	1	21.3	6.03	0	0	1	1.01578	-15.0727	115	9	1.1	0.9;
	85	1	39.67	11.24	0	37.39	1	1.03	-17.3999	115	9	1.1	0.9;
	86	1	0.91	0.26	0	4.9	1	1.03	-16.049	115	9	1.1	0.9;
	87	2	0	0	0	0	1	1	-11.7123	115	9	1.1	0.9;
	88	1	40.6	11.5	0	0	1	0.987898	-21.4551	115	9	1.1	0.9;
	89	2	0	0	0	0	1	1.02	-15.7262	115	9	1.1	0.9;
	90	1	11.62	3.29	0	0	1	1.03131	-31.797	161	9	1.1	0.9;
	91	1	48.36	13.7	0	0	2	1.00763	-59.6547	161	11	1.1	0.9;
	92	1	0	0	0	0	2	1.02037	-61.156	500	11	1.1	0.9;
	93	1	0	0	0	0	2	1.02225	-63.38	161	11	1.1	0.9;
	94	2	0	0	0	0	2	1.02037	-61.156	13.8	11	1.1	0.9;
	95	2	0	0	0	0	2	1.02037	-61.156	13.8	11	1.1	0.9;
	96	2	0	0	0	0	2	1.02037	-61.156	13.8	11	1.1	0.9;
	97	1	9.54	2.7	0	0	2	1.00899	-59.4227	161	11	1.1	0.9;
	98	1	8.06	2.28	0	0	2	1.01365	-33.769	161	10	1.1	0.9;
	99	1	39.14	11.09	0	131.5	2	1.03	-45.1637	161	11	1.1	0.9;
	100	1	56.81	16.09	0	28.69	2	1.03	-36.6402	161	10	1.1	0.9;
	101	1	0	0	0	0	2	1.02976	-33.0724	500	10	1.1	0.9;
	102	1	0	0	0	0	2	1.02029	-30.8629	161	10	1.1	0.9;
	103	2	0	0	0	0	2	1.0213	-30.6904	18	10	1.1	0.9;
	104	1	25.43	7.2	0	0	2	1.01454	-34.2962	161	10	1.1	0.9;
	105	1	4.69	1.33	0	0	2	1.01553	-62.7747	161	11	1.1	0.9;
	106	1	69.27	19.63	0	0	2	1.02042	-69.3044	161	11	1.1	0.9;
	107	1	0	0	0	-17.18	2	1.03	-33.7017	500	10	1.1	0.9;
	108	1	0	0	0	0	2	1.0248	-32.7849	161	10	1.1	0.9;
	109	2	0	0	0	0	2	1.03	-33.7017	20	10	1.1	0.9;
	110	1	47.97	13.59	0	0	2	1.00043	-44.7529	161	11	1.1	0.9;
	111	1	0	0	0	0	2	1.01872	-56.4272	500	11	1.1	0.9;
	112	1	11.56	3.28	0	0	2	1.01557	-58.328	161	11	1.1	0.9;
	113	2	0	0	0	0	2	1.02	-54.8654	13.8	11	1.1	0.9;
	114	2	0	0	0	0	2	1.02	-54.2025	13.8	11	1.1	0.9;
	115	1	39.62	11.23	0	0	2	0.998636	-43.9861	161	11	1.1	0.9;
	116	1	18.57	5.26	0	0	2	1.01785	-32.0436	161	10	1.1	0.9;
	117	1	3.55	1.01	0	0	2	1.00835	-60.0775	161	11	1.1	0.9;
	118	1	14.24	4.03	0	0	2	1.00149	-47.0922	161	11	1.1	0.9;
	119	1	3.2	0.91	0	0	2	1.02213	-33.6311	161	10	1.1	0.9;
	120	1	47.15	13.36	0	0	2	0.997443	-63.6035	161	11	1.1	0.9;
	121	1	5.77	1.63	0	0	2	1.02762	-30.0507	161	10	1.1	0.9;
	122	1	3.35	0.95	0	0	2	1.01071	-58.8314	161	11	1.1	0.9;
	123	1	13.57	3.85	0	0	2	1.00117	-65.0675	161	11	1.1	0.9;
	124	1	5.34	1.51	0	0	2	1.0241	-68.7088	161	11	1.1	0.9;
	125	1	4.68	1.33	0	0	2	1.02346	-30.7776	161	10	1.1	0.9;
	126	1	41.59	11.78	0	0	2	1.00453	-44.3686	161	11	1.1	0.9;
	127	1	3.5	0.99	0	0	2	1.02658	-63.1036	161	11	1.1	0.9;
	128	1	2.6	0.74	0	0	2	1.01892	-63.8405	161	11	1.1	0.9;
	129	1	5.56	1.58	0	0	2	0.999397	-60.1949	161	11	1.1	0.9;
	130	1	15.9	4.51	0	0	2	1.01324	-58.9925	161	11	1.1	0.9;
	131	1	0	0	0	0	2	1.02091	-28.6419	161	10	1.1	0.9;
	132	2	0	0	0	0	2	1.01224	-26.0302	18	10	1.1	0.9;
	133	1	4.24	1.2	0	0	2	1.02242	-68.9815	161	11	1.1	0.9;
	134	1	27.4	7.76	0	0	2	1.02315	-64.8321	161	11	1.1	0.9;
	135	1	22.61	6.4	0	0	2	1.00004	-45.2865	161	11	1.1	0.9;
	136	1	22.13	6.27	0	0	2	1.02626	-68.3621	161	11	1.1	0.9;
	137	1	14.96	4.24	0	0	2	1.02278	-64.2739	161	11	1.1	0.9;
	138	1	6.42	1.82	0	0	2	1.03121	-32.2466	161	10	1.1	0.9;
	139	1	11.57	3.28	0	0	2	1.02452	-40.9774	161	10	1.1	0.9;
	140	1	3.66	1.04	0	0	2	1.00214	-62.8326	161	11	1.1	0.9;
	141	1	17.85	5.06	0	0	2	0.997416	-53.8317	161	11	1.1	0.9;
	142	1	24.84	7.04	0	0	2	1.01285	-32.9355	161	10	1.1	0.9;
	143	1	29.13	8.25	0	0	2	0.997887	-58.8739	161	11	1.1	0.9;
	144	1	0	0	0	0	2	1.0021	-43.019	500	11	1.1	0.9;
	145	1	49.62	14.06	0	0	2	1.00212	-43.8374	161	11	1.1	0.9;
	146	2	0	0	0	0	2	1.0021	-43.019	18	11	1.1	0.9;
	147	2	0	0	0	0	2	0.99	-38.5807	18	11	1.1	0.9;
	148	1	0	0	0	0	2	1.02098	-28.1995	161	10	1.1	0.9;
	149	2	0	0	0	0	2	1.01088	-24.8041	13.8	10	1.1	0.9;
	150	1	3.8	1.08	0	0	2	1.00487	-61.5725	161	11	1.1	0.9;
	151	1	0	0	0	0	2	1.02539	-37.5061	161	10	1.1	0.9;
	152	2	0	0	0	0	2	1.02	-35.2095	18	10	1.1	0.9;
	153	1	65.62	18.59	0	67.92	2	1.03	-67.7692	161	11	1.1	0.9;
	154	1	10.05	2.85	0	0	2	1.00958	-59.9362	161	11	1.1	0.9;
	155	1	78.36	22.2	0	90.13	2	1.03	-65.0297	161	11	1.1	0.9;
	156	1	7.11	2.02	0	0	2	1.02193	-27.8431	161	10	1.1	0.9;
	157	1	53.97	15.29	0	0	2	0.996598	-43.8923	161	11	1.1	0.9;
	158	1	5.76	1.63	0	0	2	1.00182	-41.8037	161	11	1.1	0.9;
	159	1	21.92	6.21	0	87.65	2	1.03	-68.4425	161	11	1.1	0.9;
	160	1	0	0	0	0	2	1.00369	-41.3643	161	11	1.1	0.9;
	161	2	0	0	0	0	2	1	-37.6921	18	11	1.1	0.9;
	162	1	9.71	2.75	0	0	2	1.02499	-66.6315	161	11	1.1	0.9;
	163	1	0	0	0	0	2	1.02241	-25.3215	161	10	1.1	0.9;
	164	1	0	0	0	0	2	1.0119	-23.4345	115	10	1.1	0.9;
	165	1	0	0	0	0	2	1.0119	-23.4345	115	10	1.1	0.9;
	166	2	0	0	0	0	2	1.02764	-24.4269	24	10	1.1	0.9;
	167	1	0	0	0	0	2	1.02635	-60.7182	161	11	1.1	0.9;
	168	2	0	0	0	0	2	1.02	-57.4097	13.8	11	1.1	0.9;
	169	1	4.48	1.27	0	0	2	1.0314	-34.9863	161	10	1.1	0.9;
	170	1	16.93	4.8	0	0	2	1.00277	-57.1098	161	11	1.1	0.9;
	171	1	4.46	1.26	0	0	2	1.01291	-64.6264	161	11	1.1	0.9;
	172	1	59.03	16.73	0	0	2	1.00933	-44.7232	161	11	1.1	0.9;
	173	2	0	0	0	0	2	1.02	-43.149	20	11	1.1	0.9;
	174	2	0	0	0	0	2	1.00933	-44.7232	20	11	1.1	0.9;
	175	2	0	0	0	0	2	1.00933	-44.7232	20	11	1.1	0.9;
	176	1	2.19	0.62	0	0	2	1.00062	-59.0315	161	11	1.1	0.9;
	177	1	7.9	2.24	0	0	2	1.02436	-27.7781	161	10	1.1	0.9;
	178	1	0	0	0	0	2	1.00271	-41.4958	161	11	1.1	0.9;
	179	2	0	0	0	0	2	1	-37.8993	24	11	1.1	0.9;
	180	1	2.42	0.69	0	0	2	1.00915	-60.684	161	11	1.1	0.9;
	181	1	17.05	4.83	0	0	2	1.02547	-34.1974	161	10	1.1	0.9;
	182	1	24.11	6.83	0	0	2	1.02467	-66.0988	161	11	1.1	0.9;
	183	1	0	0	0	0	2	1.02282	-31.7744	161	10	1.1	0.9;
	184	2	0	0	0	0	2	1.02282	-31.7744	13.8	10	1.1	0.9;
	185	2	0	0	0	0	2	1.02282	-31.7744	13.8	10	1.1	0.9;
	186	1	0	0	0	-63.14	2	1.03	-29.0256	500	10	1.1	0.9;
	187	1	0	0	0	0	2	1.02852	-28.3891	230	10	1.1	0.9;
	188	1	0	0	0	0	2	1.03246	-31.2603	161	10	1.1	0.9;
	189	2	0	0	0	0	2	1.02953	-28.8845	18	10	1.1	0.9;
	190	2	0	0	0	0	2	1.0208	-26.4196	18	10	1.1	0.9;
	191	1	0	0	0	0	2	1.02049	-62.2159	500	11	1.1	0.9;
	192	1	0	0	0	0	2	1.02071	-63.6168	161	11	1.1	0.9;
	193	2	0	0	0	0	2	1.02049	-62.2159	20	11	1.1	0.9;
	194	2	0	0	0	0	2	1.02049	-62.2159	20	11	1.1	0.9;
	195	2	0	0	0	0	2	1.02049	-62.2159	20	11	1.1	0.9;
	196	1	14.4	4.08	0	0	2	1.00011	-65.6877	161	11	1.1	0.9;
	197	1	74.15	21.01	0	0	2	1.01553	-64.4635	161	11	1.1	0.9;
	198	1	2.14	0.61	0	0	2	1.00948	-43.368	161	10	1.1	0.9;
	199	1	33.81	9.58	0	0	2	1.0154	-46.256	161	11	1.1	0.9;
...
];

%% generator data
%	bus	Pg	Qg	Qmax	Qmin	Vg	mBase	status	Pmax	Pmin	Pc1	Pc2	Qc1min	Qc1max	Qc2min	Qc2max	ramp_agc	ramp_10	ramp_30	ramp_q	apf
mpc.gen = [
	1004	158.25	-30.38	44.94	-30.38	1.01	253.2	1	211	63.3	0	0	0	0	0	0	0	0	0	0	211;
	1006	25.73	-4.94	7.31	-4.94	1	41.16	1	34.3	10.29	0	0	0	0	0	0	0	0	0	0	34.3;
	1009	61.87	-11.88	17.57	-11.88	1	99	1	82.5	24.75	0	0	0	0	0	0	0	0	0	0	82.5;
	1011	9.99	0	0	0	1	12	1	10	3	0	0	0	0	0	0	0	0	0	0	10;
	1021	149.63	-28.73	42.49	-28.73	1	239.4	1	199.5	59.85	0	0	0	0	0	0	0	0	0	0	199.5;
	1023	135	-1.36	38.34	-25.92	1.01	216	1	180	54	0	0	0	0	0	0	0	0	0	0	180;
	1026	93.15	-7.89	26.45	-17.88	1	149.04	1	124.2	37.26	0	0	0	0	0	0	0	0	0	0	124.2;
	1033	208.5	-40.03	59.21	-40.03	1	333.6	1	278	83.4	0	0	0	0	0	0	0	0	0	0	278;
	1035	67.5	-12.96	19.17	-12.96	1	108	1	90	27	0	0	0	0	0	0	0	0	0	0	90;
	1039	110.63	-21.24	31.42	-21.24	1	177	1	147.5	44.25	0	0	0	0	0	0	0	0	0	0	147.5;
	1042	0	0	25.96	-17.55	1	146.28	0	121.9	36.57	0	0	0	0	0	0	0	0	0	0	121.9;
	1043	44.1	-4.93	12.52	-8.47	1	70.56	1	58.8	17.64	0	0	0	0	0	0	0	0	0	0	58.8;
	1048	0	0	165.53	-36.1	1	390.24	0	325.2	97.56	0	0	0	0	0	0	0	0	132.06	0	325.2;
	1049	0	0	165.53	-36.1	1	390.24	0	325.2	97.56	0	0	0	0	0	0	0	0	132.06	0	325.2;
	1050	89.27	-9.92	45.5	-9.92	1	107.28	1	89.4	26.82	0	0	0	0	0	0	0	0	44.7	0	89.4;
	1051	89.27	-7.94	45.5	-9.92	1	107.28	1	89.4	26.82	0	0	0	0	0	0	0	0	44.7	0	89.4;
	1052	89.27	-9.92	45.5	-9.92	1	107.28	1	89.4	26.82	0	0	0	0	0	0	0	0	44.7	0	89.4;
	1053	0	0	91.01	-19.85	1	214.56	0	178.8	53.64	0	0	0	0	0	0	0	0	89.4	0	178.8;
	1057	0	0	25.56	-17.28	1	144	0	120	36	0	0	0	0	0	0	0	0	0	0	120;
	1059	0	0	2.85	-0.62	1.04	6.72	0	5.6	1.68	0	0	0	0	0	0	0	0	2.8	0	5.6;
	1060	0	0	1.02	-0.22	1.04	2.4	0	2	0.6	0	0	0	0	0	0	0	0	1	0	2;
	1062	0	0	0	0	1.01	1.8	0	1.5	0.45	0	0	0	0	0	0	0	0	0	0	1.5;
	1063	0	0	0	0	1.01	276	0	230	69	0	0	0	0	0	0	0	0	0	0	230;
	1066	106.88	-4.79	30.35	-20.52	1	171	1	142.5	42.75	0	0	0	0	0	0	0	0	0	0	142.5;
	1070	120.38	16.42	34.19	-23.11	1.04	192.6	1	160.5	48.15	0	0	0	0	0	0	0	0	0	0	160.5;
	1072	191.85	10.71	97.8	-21.33	1.01	230.56	1	192.13	57.64	0	0	0	0	0	0	0	0	96.06	0	192.13;
	1073	191.85	23.64	97.8	-21.33	1.01	230.56	1	192.13	57.64	0	0	0	0	0	0	0	0	96.06	0	192.13;
	1074	191.85	18.7	97.8	-21.33	1.01	230.56	1	192.13	57.64	0	0	0	0	0	0	0	0	96.06	0	192.13;
	1075	191.85	17.01	97.8	-21.33	1.01	230.56	1	192.13	57.64	0	0	0	0	0	0	0	0	96.06	0	192.13;
	1076	0	0	97.8	-21.33	1.01	230.56	0	192.13	57.64	0	0	0	0	0	0	0	0	96.06	0	192.13;
	1077	0	0	97.8	-21.33	1.01	230.56	0	192.13	57.64	0	0	0	0	0	0	0	0	96.06	0	192.13;
	1078	95.36	9.08	48.61	-10.6	1.01	114.6	1	95.5	28.65	0	0	0	0	0	0	0	0	47.75	0	95.5;
	1079	95.36	-10.6	48.61	-10.6	1.01	114.6	1	95.5	28.65	0	0	0	0	0	0	0	0	47.75	0	95.5;
	1080	95.36	6.37	48.61	-10.6	1.01	114.6	1	95.5	28.65	0	0	0	0	0	0	0	0	47.75	0	95.5;
	1081	0	0	145.83	-31.8	1.01	343.8	0	286.5	85.95	0	0	0	0	0	0	0	0	124.66	0	286.5;
	1082	112.5	-21.6	31.95	-21.6	1	180	1	150	45	0	0	0	0	0	0	0	0	0	0	150;
	1084	86.62	24.6	24.6	-16.63	1.04	138.6	1	115.5	34.65	0	0	0	0	0	0	0	0	0	0	115.5;
	1088	56.25	-8.13	15.97	-10.8	1	90	1	75	22.5	0	0	0	0	0	0	0	0	0	0	75;
	1090	114.37	9.6	32.48	-21.96	1.02	183	1	152.5	45.75	0	0	0	0	0	0	0	0	0	0	152.5;
	1090	27	7.67	7.67	-5.18	1.02	43.2	1	36	10.8	0	0	0	0	0	0	0	0	0	0	36;
	2004	0	0	199.43	-43.49	1.02	470.16	0	391.8	117.54	0	0	0	0	0	0	0	0	139.54	0	391.8;
	2005	0	0	199.43	-43.49	1.02	470.16	0	391.8	117.54	0	0	0	0	0	0	0	0	139.54	0	391.8;
	2006	0	0	199.43	-43.49	1.02	470.16	0	391.8	117.54	0	0	0	0	0	0	0	0	139.54	0	391.8;
	2013	150.45	-28.89	42.73	-28.89	1	240.72	1	200.6	60.18	0	0	0	0	0	0	0	0	0	0	200.6;
	2019	0	0	46.43	-31.39	1.04	261.6	0	218	65.4	0	0	0	0	0	0	0	0	0	0	218;
	2023	83.21	3.63	42.42	-9.25	1.02	100	1	83.33	25	0	0	0	0	0	0	0	0	41.66	0	83.33;
	2024	166.42	6.12	84.83	-18.5	1.02	200	1	166.67	50	0	0	0	0	0	0	0	0	83.33	0	166.67;
	2042	59.7	-11.46	16.95	-11.46	1.01	95.52	1	79.6	23.88	0	0	0	0	0	0	0	0	0	0	79.6;
	2056	0	0	2.8	-0.73	0.99	7.2	0	6	1.8	0	0	0	0	0	0	0	0	2.4	0	6;
	2057	579.67	-79.15	335.52	-87.84	0.99	864	1	720	216	0	0	0	0	0	0	0	0	210	0	720;
	2059	60	-11.52	17.04	-11.52	1	96	1	80	24	0	0	0	0	0	0	0	0	0	0	80;
	2062	101.55	-15.32	28.84	-19.5	1.02	162.48	1	135.4	40.62	0	0	0	0	0	0	0	0	0	0	135.4;
	2071	112.5	-5.4	31.95	-21.6	1	180	1	150	45	0	0	0	0	0	0	0	0	0	0	150;
	2076	22.5	6.39	6.39	-4.32	1.04	36	1	30	9	0	0	0	0	0	0	0	0	0	0	30;
	2078	84.38	-8.99	23.96	-16.2	1.02	135	1	112.5	33.75	0	0	0	0	0	0	0	0	0	0	112.5;
	2083	19.97	7.32	10.18	-2.22	1.02	24	1	20	6	0	0	0	0	0	0	0	0	10	0	20;
	2084	0	0	10.18	-2.22	1.02	24	0	20	6	0	0	0	0	0	0	0	0	10	0	20;
	2085	0	0	20.36	-4.44	1.02	48	0	40	12	0	0	0	0	0	0	0	0	20	0	40;
	2089	50.7	-1.65	14.4	-9.73	1	81.12	1	67.6	20.28	0	0	0	0	0	0	0	0	0	0	67.6;
	2094	0	0	2.13	-1.44	1	12	0	10	3	0	0	0	0	0	0	0	0	0	0	10;
	2095	0	0	16.93	-11.45	1	95.4	0	79.5	23.85	0	0	0	0	0	0	0	0	0	0	79.5;
	2099	7.5	-1.44	2.13	-1.44	1.02	12	1	10	3	0	0	0	0	0	0	0	0	0	0	10;
	2100	112.5	-21.6	31.95	-21.6	1.02	180	1	150	45	0	0	0	0	0	0	0	0	0	0	150;
	2103	0	0	136.28	-29.72	1	321.28	0	267.73	80.32	0	0	0	0	0	0	0	0	120.26	0	267.73;
	2104	0	0	136.28	-29.72	1	321.28	0	267.73	80.32	0	0	0	0	0	0	0	0	120.26	0	267.73;
	2105	0	0	136.28	-29.72	1	321.28	0	267.73	80.32	0	0	0	0	0	0	0	0	120.26	0	267.73;
	2115	184.45	-20.5	94.02	-20.5	1	221.66	1	184.72	55.41	0	0	0	0	0	0	0	0	92.36	0	184.72;
	2116	184.45	-20.5	94.02	-20.5	1	221.66	1	184.72	55.41	0	0	0	0	0	0	0	0	92.36	0	184.72;
	2117	184.45	-20.5	94.02	-20.5	1	221.66	1	184.72	55.41	0	0	0	0	0	0	0	0	92.36	0	184.72;
	2118	184.45	-20.5	94.02	-20.5	1	221.66	1	184.72	55.41	0	0	0	0	0	0	0	0	92.36	0	184.72;
	2119	184.45	-20.5	94.02	-20.5	1	221.66	1	184.72	55.41	0	0	0	0	0	0	0	0	92.36	0	184.72;
	2120	184.45	-13.02	94.02	-20.5	1.01	221.66	1	184.72	55.41	0	0	0	0	0	0	0	0	92.36	0	184.72;
	2123	136.28	-26.16	38.7	-26.16	1	218.04	1	181.7	54.51	0	0	0	0	0	0	0	0	0	0	181.7;
	2127	216.45	61.47	61.47	-41.56	1.04	346.32	1	288.6	86.58	0	0	0	0	0	0	0	0	0	0	288.6;
	3004	28.13	-5.4	7.99	-5.4	1	45	1	37.5	11.25	0	0	0	0	0	0	0	0	0	0	37.5;
	3017	127.13	-3.11	36.1	-24.41	1.01	203.4	1	169.5	50.85	0	0	0	0	0	0	0	0	0	0	169.5;
	3020	112.5	-0.04	31.95	-21.6	1.03	180	1	150	45	0	0	0	0	0	0	0	0	0	0	150;
	3028	150	30.9	42.6	-28.8	1.04	240	1	200	60	0	0	0	0	0	0	0	0	0	0	200;
	3034	97.87	16.69	27.8	-18.79	1.03	156.6	1	130.5	39.15	0	0	0	0	0	0	0	0	0	0	130.5;
	3039	156.75	32.46	44.52	-30.1	1.04	250.8	1	209	62.7	0	0	0	0	0	0	0	0	0	0	209;
	3043	0	0	0.66	-0.14	1.04	1.56	0	1.3	0.39	0	0	0	0	0	0	0	0	0.65	0	1.3;
	3044	0	0	45.5	-9.92	1.04	107.28	0	89.4	26.82	0	0	0	0	0	0	0	0	44.7	0	89.4;
	3045	0	0	227.52	-49.62	1.04	536.4	0	447	134.1	0	0	0	0	0	0	0	0	140.69	0	447;
	3048	180.75	51.33	51.33	-34.7	1.04	289.2	1	241	72.3	0	0	0	0	0	0	0	0	0	0	241;
	3055	183.88	29.03	52.22	-35.3	1.04	294.2	1	245.17	73.55	0	0	0	0	0	0	0	0	0	0	245.17;
	3056	183.88	20.55	52.22	-35.3	1.04	294.2	1	245.17	73.55	0	0	0	0	0	0	0	0	0	0	245.17;
	3057	183.88	18.83	52.22	-35.3	1.04	294.2	1	245.17	73.55	0	0	0	0	0	0	0	0	0	0	245.17;
	3060	124.22	10.79	35.28	-23.85	1.04	198.75	1	165.63	49.69	0	0	0	0	0	0	0	0	0	0	165.63;
	3061	124.22	10.59	35.28	-23.85	1.04	198.75	1	165.63	49.69	0	0	0	0	0	0	0	0	0	0	165.63;
	3062	124.22	12.87	35.28	-23.85	1.04	198.75	1	165.63	49.69	0	0	0	0	0	0	0	0	0	0	165.63;
	3063	124.22	10.23	35.28	-23.85	1.04	198.75	1	165.63	49.69	0	0	0	0	0	0	0	0	0	0	165.63;
	3065	60.37	-11.59	17.15	-11.59	1	96.6	1	80.5	24.15	0	0	0	0	0	0	0	0	0	0	80.5;
	3068	112.5	22.42	31.95	-21.6	1.04	180	1	150	45	0	0	0	0	0	0	0	0	0	0	150;
	3071	127.65	-24.51	36.25	-24.51	1	204.24	1	170.2	51.06	0	0	0	0	0	0	0	0	0	0	170.2;
	3074	74.85	-7.15	21.26	-14.37	1	119.76	1	99.8	29.94	0	0	0	0	0	0	0	0	0	0	99.8;
	3081	186.75	25.43	53.04	-35.86	1.04	298.8	1	249	74.7	0	0	0	0	0	0	0	0	0	0	249;
	3084	174.37	-14.09	49.52	-33.48	1	279	1	232.5	69.75	0	0	0	0	0	0	0	0	0	0	232.5;
	3086	56.25	-2.4	15.97	-10.8	1	90	1	75	22.5	0	0	0	0	0	0	0	0	0	0	75;
	3087	0	0	15.97	-10.8	1	90	0	75	22.5	0	0	0	0	0	0	0	0	0	0	75;
	3092	150	18.47	42.6	-28.8	1.04	240	1	200	60	0	0	0	0	0	0	0	0	0	0	200;
	3095	90.45	17.28	25.69	-17.37	1.04	144.72	1	120.6	36.18	0	0	0	0	0	0	0	0	0	0	120.6;
	3098	120	16.96	34.08	-23.04	1.04	192	1	160	48	0	0	0	0	0	0	0	0	0	0	160;
	3105	44.5	-0.74	17.07	-0.74	1	18	1	44.5	0	0	0	0	0	0	0	0	0	0	0	15;
	3106	53.02	-2.69	62.48	-2.69	1	65.88	1	18.5	0	0	0	0	0	0	0	0	0	0	0	54.9;
	3110	63	11.52	17.89	-12.1	1.04	100.8	1	84	25.2	0	0	0	0	0	0	0	0	0	0	84;
	3112	56.1	-4	15.93	-10.77	1	89.76	1	74.8	22.44	0	0	0	0	0	0	0	0	0	0	74.8;
	3113	56.1	-3.31	15.93	-10.77	1	89.76	1	74.8	22.44	0	0	0	0	0	0	0	0	0	0	74.8;
	3117	47.25	-5.59	13.42	-9.07	1	75.6	1	63	18.9	0	0	0	0	0	0	0	0	0	0	63;
	3118	90	-9.26	25.56	-17.28	1	144	1	120	36	0	0	0	0	0	0	0	0	0	0	120;
	3120	29.7	0	0	0	1	47.52	1	39.6	11.88	0	0	0	0	0	0	0	0	0	0	39.6;
	3122	147.75	-14.42	41.96	-28.37	1	236.4	1	197	59.1	0	0	0	0	0	0	0	0	0	0	197;
	3127	101.25	-19.44	28.76	-19.44	1	162	1	135	40.5	0	0	0	0	0	0	0	0	0	0	135;
	3129	94.88	-18.22	26.94	-18.22	1	151.8	1	126.5	37.95	0	0	0	0	0	0	0	0	0	0	126.5;
	3131	85.5	6.75	24.28	-16.42	1.02	136.8	1	114	34.2	0	0	0	0	0	0	0	0	0	0	114;
	3133	0	0	26.11	-5.69	1.04	61.56	0	51.3	15.39	0	0	0	0	0	0	0	0	25.65	0	51.3;
	3133	0	0	26.11	-5.69	1.04	61.56	0	51.3	15.39	0	0	0	0	0	0	0	0	25.65	0	51.3;
	3133	0	0	26.11	-5.69	1.04	61.56	0	51.3	15.39	0	0	0	0	0	0	0	0	25.65	0	51.3;
	3137	75.9	21.56	21.56	-14.57	1.03	121.44	1	101.2	30.36	0	0	0	0	0	0	0	0	0	0	101.2;
	3141	68.62	-13.18	19.49	-13.18	1	109.8	1	91.5	27.45	0	0	0	0	0	0	0	0	0	0	91.5;
	4010	151.2	9.12	42.94	-29.03	1.03	241.92	1	201.6	60.48	0	0	0	0	0	0	0	0	0	0	201.6;
	4026	409.4	42.35	191.06	-50.02	1.03	492	1	410	123	0	0	0	0	0	0	0	0	146.06	0	410;
	4030	465.83	-41.42	290.04	-75.93	1.01	746.88	1	622.4	186.72	0	0	0	0	0	0	0	0	194.19	0	622.4;
	4045	93.4	5.86	35.86	-1.54	1.02	37.8	1	36	0	0	0	0	0	0	0	0	0	0	0	31.5;
	4046	28.5	0.91	10.94	-0.47	1.02	11.52	1	9.6	0	0	0	0	0	0	0	0	0	0	0	9.6;
	4047	27.48	0.6	75.1	-3.23	1.02	79.2	1	195.7	0	0	0	0	0	0	0	0	0	97.85	0	66;
	4050	150	-28.8	42.6	-28.8	1	240	1	200	60	0	0	0	0	0	0	0	0	0	0	200;
	4052	44.13	22.5	22.5	-4.91	1.04	53.04	1	44.2	13.26	0	0	0	0	0	0	0	0	22.1	0	44.2;
	4058	100.82	14.7	73.3	-15.98	1.03	172.8	1	144	43.2	0	0	0	0	0	0	0	0	72	0	144;
	4059	85.3	15.12	73.3	-15.98	1.03	172.8	1	144	43.2	0	0	0	0	0	0	0	0	72	0	144;
	4060	125.62	12.99	73.3	-15.98	1.03	172.8	1	144	43.2	0	0	0	0	0	0	0	0	72	0	144;
	4061	150.33	16.74	87.72	-19.13	1.03	206.8	1	172.33	51.7	0	0	0	0	0	0	0	0	86.17	0	172.33;
	4062	172.08	14.76	87.72	-19.13	1.03	206.8	1	172.33	51.7	0	0	0	0	0	0	0	0	86.17	0	172.33;
	4063	126.2	16.97	87.72	-19.13	1.03	206.8	1	172.33	51.7	0	0	0	0	0	0	0	0	86.17	0	172.33;
	4065	46.93	9.84	23.92	-5.22	1.02	56.4	1	47	14.1	0	0	0	0	0	0	0	0	23.5	0	47;
	4075	0	0	89.75	-19.57	1.03	211.6	0	176.33	52.9	0	0	0	0	0	0	0	0	88.17	0	176.33;
	4076	176.07	22.29	89.75	-19.57	1.03	211.6	1	176.33	52.9	0	0	0	0	0	0	0	0	88.17	0	176.33;
	4077	98.55	16.9	89.75	-19.57	1.03	211.6	1	176.33	52.9	0	0	0	0	0	0	0	0	88.17	0	176.33;
	4082	243.04	26.69	123.89	-27.02	1.04	292.08	1	243.4	73.02	0	0	0	0	0	0	0	0	113.78	0	243.4;
	4083	243.04	27.21	123.89	-27.02	1.04	292.08	1	243.4	73.02	0	0	0	0	0	0	0	0	113.78	0	243.4;
	4084	243.04	40.3	123.89	-27.02	1.04	292.08	1	243.4	73.02	0	0	0	0	0	0	0	0	113.78	0	243.4;
	4085	171.03	41.93	179.17	-39.07	1.04	422.4	1	352	105.6	0	0	0	0	0	0	0	0	135.87	0	352;
	4090	0	0	0.65	-0.17	1.01	1.68	0	1.4	0.42	0	0	0	0	0	0	0	0	0.56	0	1.4;
	4091	23.47	-1.01	10.95	-2.87	1.01	28.2	1	23.5	7.05	0	0	0	0	0	0	0	0	9.4	0	23.5;
	4092	0	0	3.54	-0.93	1.01	9.12	0	7.6	2.28	0	0	0	0	0	0	0	0	3.04	0	7.6;
	4093	27.96	-1.55	13.05	-3.42	1.01	33.6	1	28	8.4	0	0	0	0	0	0	0	0	11.2	0	28;
	4094	27.96	-2.66	13.05	-3.42	1.01	33.6	1	28	8.4	0	0	0	0	0	0	0	0	11.2	0	28;
	4095	27.96	-1.57	13.05	-3.42	1.01	33.6	1	28	8.4	0	0	0	0	0	0	0	0	11.2	0	28;
	4096	0	0	13.05	-3.42	1.01	33.6	0	28	8.4	0	0	0	0	0	0	0	0	11.2	0	28;
	4097	27.96	-1.41	13.05	-3.42	1.01	33.6	1	28	8.4	0	0	0	0	0	0	0	0	11.2	0	28;
	4098	0	0	13.05	-3.42	1.01	33.6	0	28	8.4	0	0	0	0	0	0	0	0	11.2	0	28;
	4105	135	13.1	38.34	-25.92	1.01	216	1	180	54	0	0	0	0	0	0	0	0	0	0	180;
	4115	131.61	25.73	67.09	-14.63	1.04	158.16	1	131.8	39.54	0	0	0	0	0	0	0	0	65.9	0	131.8;
	4116	124.88	23.21	67.09	-14.63	1.04	158.16	1	131.8	39.54	0	0	0	0	0	0	0	0	65.9	0	131.8;
	4133	0	0	17.1	-3.73	1	40.32	0	33.6	10.08	0	0	0	0	0	0	0	0	16.8	0	33.6;
	4134	10.49	-3.73	17.1	-3.73	1	40.32	1	33.6	10.08	0	0	0	0	0	0	0	0	16.8	0	33.6;
	4135	10.49	-3.73	17.1	-3.73	1	40.32	1	33.6	10.08	0	0	0	0	0	0	0	0	16.8	0	33.6;
	4136	10.49	-3.73	17.1	-3.73	1	40.32	1	33.6	10.08	0	0	0	0	0	0	0	0	16.8	0	33.6;
	4137	0	0	34.2	-7.46	1	80.64	0	67.2	20.16	0	0	0	0	0	0	0	0	33.6	0	67.2;
	4138	0	0	33.59	-7.33	1	79.2	0	66	19.8	0	0	0	0	0	0	0	0	33	0	66;
	4142	141	26.2	40.04	-27.07	1.04	225.6	1	188	56.4	0	0	0	0	0	0	0	0	0	0	188;
	4153	212.4	60.32	60.32	-40.78	1.04	339.84	1	283.2	84.96	0	0	0	0	0	0	0	0	0	0	283.2;
	4160	197.48	55.67	100.66	-21.95	1.03	237.32	1	197.77	59.33	0	0	0	0	0	0	0	0	98.89	0	197.77;
	4161	89.46	23.49	100.66	-21.95	1.03	237.32	1	197.77	59.33	0	0	0	0	0	0	0	0	98.89	0	197.77;
	4162	114.14	22.39	100.66	-21.95	1.03	237.32	1	197.77	59.33	0	0	0	0	0	0	0	0	98.89	0	197.77;
	4163	0	0	4.58	-1	1.03	10.8	0	9	2.7	0	0	0	0	0	0	0	0	4.5	0	9;
	4166	150.75	-28.94	42.81	-28.94	1	241.2	1	201	60.3	0	0	0	0	0	0	0	0	0	0	201;
	4177	112.5	-0.15	31.95	-21.6	1.04	180	1	150	45	0	0	0	0	0	0	0	0	0	0	150;
	4181	150.07	42.62	42.62	-28.81	1.04	240.12	1	200.1	60.03	0	0	0	0	0	0	0	0	0	0	200.1;
	4183	152.25	43.24	43.24	-29.23	1.03	243.6	1	203	60.9	0	0	0	0	0	0	0	0	0	0	203;
	4192	74.89	12.56	38.17	-8.33	1.02	90	1	75	22.5	0	0	0	0	0	0	0	0	37.5	0	75;
	4192	183.5	12.56	93.54	-20.4	1.02	220.52	1	183.77	55.13	0	0	0	0	0	0	0	0	91.89	0	183.77;
	4192	0	0	12.22	-2.66	1.02	28.8	0	24	7.2	0	0	0	0	0	0	0	0	12	0	24;
	4192	60.91	12.56	31.05	-6.77	1.02	73.2	1	61	18.3	0	0	0	0	0	0	0	0	30.5	0	61;
	4192	10.38	5.29	5.29	-1.15	1.02	12.48	1	10.4	3.12	0	0	0	0	0	0	0	0	5.2	0	10.4;
	4192	138.74	12.56	135.9	-29.64	1.02	320.4	1	267	80.1	0	0	0	0	0	0	0	0	120.08	0	267;
	4192	158.16	12.56	135.9	-29.64	1.02	320.4	1	267	80.1	0	0	0	0	0	0	0	0	120.08	0	267;
	4192	158.16	12.56	135.9	-29.64	1.02	320.4	1	267	80.1	0	0	0	0	0	0	0	0	120.08	0	267;
	4192	183.5	12.56	93.54	-20.4	1.02	220.52	1	183.77	55.13	0	0	0	0	0	0	0	0	91.89	0	183.77;
	4192	183.5	12.56	93.54	-20.4	1.02	220.52	1	183.77	55.13	0	0	0	0	0	0	0	0	91.89	0	183.77;
	4194	151.2	42.94	42.94	-29.03	1.02	241.92	1	201.6	60.48	0	0	0	0	0	0	0	0	0	0	201.6;
	4195	69	-13.25	19.6	-13.25	1	110.4	1	92	27.6	0	0	0	0	0	0	0	0	0	0	92;
	5020	90	-17.28	25.56	-17.28	1	144	1	120	36	0	0	0	0	0	0	0	0	0	0	120;
	5023	0	0	2.44	-0.53	1.04	5.76	0	4.8	1.44	0	0	0	0	0	0	0	0	2.4	0	4.8;
	5035	0	0	2.14	-0.47	1.02	5.04	0	4.2	1.26	0	0	0	0	0	0	0	0	2.1	0	4.2;
	5036	0	0	3.26	-0.71	1.02	7.68	0	6.4	1.92	0	0	0	0	0	0	0	0	3.2	0	6.4;
	5037	96.35	16.88	157.01	-34.24	1.02	370.16	1	308.47	92.54	0	0	0	0	0	0	0	0	129.14	0	308.47;
	5038	96.35	16.55	157.01	-34.24	1.02	370.16	1	308.47	92.54	0	0	0	0	0	0	0	0	129.14	0	308.47;
	5039	96.35	37.47	157.01	-34.24	1.02	370.16	1	308.47	92.54	0	0	0	0	0	0	0	0	129.14	0	308.47;
	5040	96.35	11.89	157.01	-34.24	1.02	370.16	1	308.47	92.54	0	0	0	0	0	0	0	0	129.14	0	308.47;
	5041	96.35	17.4	157.01	-34.24	1.02	370.16	1	308.47	92.54	0	0	0	0	0	0	0	0	129.14	0	308.47;
	5042	96.35	15.52	157.01	-34.24	1.02	370.16	1	308.47	92.54	0	0	0	0	0	0	0	0	129.14	0	308.47;
	5051	84.58	35.75	43.11	-9.4	1.02	101.64	1	84.7	25.41	0	0	0	0	0	0	0	0	42.35	0	84.7;
	5057	0	0	161.53	-35.23	1	380.82	0	317.35	95.2	0	0	0	0	0	0	0	0	130.74	0	317.35;
	5058	253.85	-35.23	161.53	-35.23	1	380.82	1	317.35	95.2	0	0	0	0	0	0	0	0	130.74	0	317.35;
	5065	10.58	5.4	5.4	-1.18	1.03	12.72	1	10.6	3.18	0	0	0	0	0	0	0	0	5.3	0	10.6;
	5066	0	0	0.92	-0.2	1.03	2.16	0	1.8	0.54	0	0	0	0	0	0	0	0	0.9	0	1.8;
	5067	437.62	106.81	223.08	-48.65	1.03	525.92	1	438.27	131.48	0	0	0	0	0	0	0	0	140.82	0	438.27;
	5068	437.62	100.32	223.08	-48.65	1.03	525.92	1	438.27	131.48	0	0	0	0	0	0	0	0	140.82	0	438.27;
	5069	437.62	94.11	223.08	-48.65	1.03	525.92	1	438.27	131.48	0	0	0	0	0	0	0	0	140.82	0	438.27;
	5089	0	0	47.57	-2.05	1.01	50.16	0	123.9	0	0	0	0	0	0	0	0	0	61.95	0	41.8;
...
];

%% branch data
%	fbus	tbus	r	x	b	rateA	rateB	rateC	ratio	angle	status	angmin	angmax
mpc.branch = [
	1001	1064	0.00524	0.0358	0.00609	221	0	0	0	0	1	0	0;
	1001	1064	0.00524	0.0358	0.00609	221	0	0	0	0	1	0	0;
	1001	1071	0.00435	0.02808	0.00536	221	0	0	0	0	1	0	0;
	1001	1071	0.00435	0.02808	0.00536	221	0	0	0	0	1	0	0;
	1002	1007	0.07776	0.46693	0.06336	98	0	0	0	0	1	0	0;
	1010	1002	0.05552	0.1357	0.01777	98	0	0	0	0	1	0	0;
	1004	1003	0.0045	0.11582	0	250	0	0	1	0	1	0	0;
	1022	1003	0.00485	0.02012	0.00341	221	0	0	0	0	1	0	0;
	1055	1003	0.01574	0.03782	0.00513	196	0	0	0	0	1	0	0;
	1004	3133	0.0042	0.03	0.055	523	0	0	0	0	1	0	0;
	1006	1005	0.00602	0.14707	0	42	0	0	1	0	1	0	0;
	1025	1005	0.01842	0.0821	0.01204	149	0	0	0	0	1	0	0;
	1005	1061	0.00599	0.02484	0.00422	221	0	0	0	0	1	0	0;
	1067	1005	0.01711	0.04181	0.00548	274.4	0	0	0	0	1	0	0;
	1007	1015	0.06224	0.37375	0.05072	98	0	0	0	0	1	0	0;
	1031	1007	0.04803	0.27434	0.04123	98	0	0	0	0	1	0	0;
	1009	1008	0.00455	0.09471	0	120	0	0	1	0	1	0	0;
	1008	1032	0.04501	0.11002	0.01441	98	0	0	0	0	1	0	0;
	1008	1069	0.0083	0.03628	0.00553	149	0	0	0	0	1	0	0;
	1011	1010	0.00721	0.3246	0	46	0	0	1	0	1	0	0;
	1010	1015	0.04703	0.28243	0.03833	98	0	0	0	0	1	0	0;
	1010	1030	0.0616	0.3699	0.0502	98	0	0	0	0	1	0	0;
	1012	1087	0.04934	0.20469	0.03473	149	0	0	0	0	1	0	0;
	3051	1012	0.0571	0.24977	0.03804	149	0	0	0	0	1	0	0;
	1013	1031	0.04509	0.27078	0.03675	98	0	0	0	0	1	0	0;
	1047	1013	0.00947	0.06117	0.01167	221	0	0	0	0	1	0	0;
	1086	1013	0.079	0.19311	0.02529	98	0	0	0	0	1	0	0;
	1014	1047	0.03566	0.14794	0.0251	149	0	0	0	0	1	0	0;
	1014	1083	0.04105	0.18293	0.02682	149	0	0	0	0	1	0	0;
	1016	1034	0.01828	0.10976	0.01489	98	0	0	0	0	1	0	0;
	1068	1016	0.02773	0.15837	0.0238	98	0	0	0	0	1	0	0;
	1018	1017	0.03227	0.07887	0.01033	98	0	0	0	0	1	0	0;
	1017	1029	0.03244	0.14188	0.02161	163.9	0	0	0	0	1	0	0;
	1037	1017	0.00752	0.03352	0.00491	221	0	0	0	0	1	0	0;
	1047	1017	0.036	0.156	0.024	150	0	0	0	0	1	0	0;
	1024	1018	0.01094	0.06572	0.00892	98	0	0	0	0	1	0	0;
	1019	1040	0.04978	0.20651	0.03504	149	0	0	0	0	1	0	0;
	1019	1045	0.01522	0.0372	0.00487	287.3	0	0	0	0	1	0	0;
	1019	1071	0.0044	0.028	0.0054	225	0	0	0	0	1	0	0;
	1071	1019	0.0044	0.028	0.0054	225	0	0	0	0	1	0	0;
	1019	1084	0.03	0.16	0.025	330	0	0	0	0	1	0	0;
	1021	1020	0.00327	0.07812	0	250	0	0	1	0	1	0	0;
	1025	1020	0.00828	0.03434	0.00583	149	0	0	0	0	1	0	0;
	1084	1020	0.01056	0.06337	0.0086	221	0	0	0	0	1	0	0;
	1020	3059	0.0189	0.06	0.006	300	0	0	0	0	1	0	0;
	1020	3130	0.00996	0.06938	0.01134	221	0	0	0	0	1	0	0;
	1023	1022	0.00535	0.11733	0	250	0	0	1	0	1	0	0;
	1022	1028	0.01433	0.09253	0.01765	221	0	0	0	0	1	0	0;
	1022	1028	0.01433	0.09253	0.01765	221	0	0	0	0	1	0	0;
	1024	1090	0.01414	0.06303	0.00924	149	0	0	0	0	1	0	0;
	1026	1025	0.0042	0.18046	0	200	0	0	1	0	1	0	0;
	1027	1045	0.02505	0.10957	0.01669	221	0	0	0	0	1	0	0;
	1056	1027	0.03121	0.0763	0.00999	250	0	0	0	0	1	0	0;
	1028	3109	0.00428	0.01875	0.00286	250	0	0	0	0	1	0	0;
	1029	1056	0.02054	0.11733	0.01763	221	0	0	0	0	1	0	0;
	1030	1038	0.07404	0.42285	0.06354	98	0	0	0	0	1	0	0;
	1083	1030	0.06537	0.37334	0.0561	98	0	0	0	0	1	0	0;
	1033	1032	0.00283	0.06758	0	187	0	0	1	0	1	0	0;
	1032	1036	0.01956	0.11746	0.01594	127.4	0	0	0	0	1	0	0;
	1038	1032	0.045	0.11	0.015	155	0	0	0	0	1	0	0;
	1033	1081	0.003	0.031	0.059	548	0	0	0	0	1	0	0;
	1033	3050	0.0139	0.136	0.262	647	0	0	0	0	1	0	0;
	1035	1034	0.00438	0.08496	0	130	0	0	1	0	1	0	0;
	1067	1034	0.00795	0.04771	0.00647	98	0	0	0	0	1	0	0;
	1088	1036	0.02065	0.11793	0.01772	98	0	0	0	0	1	0	0;
	1037	1071	0.00669	0.04319	0.00824	300	0	0	0	0	1	0	0;
	1039	1038	0.00201	0.08591	0	200	0	0	1	0	1	0	0;
	1082	1038	0.01115	0.04969	0.00729	149	0	0	0	0	1	0	0;
	1083	1038	0.01	0.05	0.007	221	0	0	0	0	1	0	0;
	1040	1090	0.02991	0.13329	0.01955	149	0	0	0	0	1	0	0;
	1042	1041	0.00419	0.11123	0	145	0	0	1	0	1	0	0;
	1043	1041	0.003	0.12844	0	95	0	0	1	0	1	0	0;
	1065	1041	0.00386	0.02203	0.00331	98	0	0	0	0	1	0	0;
	1041	1067	0.00393	0.01722	0.00262	149	0	0	0	0	1	0	0;
	1044	3019	0.03857	0.17192	0.02521	149	0	0	0	0	1	0	0;
	3130	1044	0.02731	0.19029	0.03111	221	0	0	0	0	1	0	0;
	1045	1064	0.00545	0.03794	0.0062	221	0	0	0	0	1	0	0;
	1087	1046	0.03262	0.14269	0.02173	149	0	0	0	0	1	0	0;
	1046	3009	0.05654	0.23454	0.0398	149	0	0	0	0	1	0	0;
	1048	1047	0.00335	0.06576	0	390	0	0	1	0	1	0	0;
	1049	1047	0.00276	0.11783	0	390	0	0	1	0	1	0	0;
	1050	1047	0.00313	0.09941	0	124	0	0	1	0	1	0	0;
	1051	1047	0.0056	0.1283	0	117	0	0	1	0	1	0	0;
	1052	1047	0.00368	0.0826	0	110	0	0	1	0	1	0	0;
	1053	1047	0.0023	0.08808	0	250	0	0	1	0	1	0	0;
	1047	1085	0.00947	0.06117	0.01167	221	0	0	0	0	1	0	0;
	1053	1081	0.003	0.03	0.06	548	0	0	0	0	1	0	0;
	1054	1056	0.02202	0.09633	0.01467	149	0	0	0	0	1	0	0;
	1089	1054	0.08737	0.21357	0.02796	98	0	0	0	0	1	0	0;
	1055	1089	0.04982	0.12179	0.01595	176.4	0	0	0	0	1	0	0;
	1057	1056	0.00315	0.1312	0	160	0	0	1	0	1	0	0;
	1056	1061	0.02267	0.12946	0.01945	150	0	0	0	0	1	0	0;
	1056	1065	0.02269	0.12962	0.01948	250	0	0	0	0	1	0	0;
	1059	1058	0.02655	0.46187	0	33	0	0	1	0	1	0	0;
	1060	1058	0.00894	0.38854	0	27	0	0	1	0	1	0	0;
	1069	1058	0.0074	0.05155	0.00843	221	0	0	0	0	1	0	0;
	1069	1058	0.0074	0.05155	0.00843	221	0	0	0	0	1	0	0;
	1058	1087	0.01573	0.10956	0.01791	221	0	0	0	0	1	0	0;
	1058	1087	0.01573	0.10956	0.01791	221	0	0	0	0	1	0	0;
	1062	1061	0.0163	0.31787	0	29	0	0	1	0	1	0	0;
	1063	1061	0.00567	0.10409	0	260	0	0	1	0	1	0	0;
	1061	3042	0.054	0.18	0.028	221	0	0	0	0	1	0	0;
	1066	1065	0.00508	0.12315	0	200	0	0	1	0	1	0	0;
	1088	1068	0.02962	0.16921	0.02543	98	0	0	0	0	1	0	0;
	1070	1069	0.00297	0.07	0	220	0	0	1	0	1	0	0;
	1082	1069	0.02137	0.0952	0.01396	149	0	0	0	0	1	0	0;
	1072	1071	0.00529	0.08551	0	240	0	0	1	0	1	0	0;
	1073	1071	0.00499	0.14254	0	240	0	0	1	0	1	0	0;
	1074	1071	0.00575	0.12453	0	240	0	0	1	0	1	0	0;
	1075	1071	0.00373	0.09967	0	240	0	0	1	0	1	0	0;
	1076	1071	0.00141	0.04937	0	230	0	0	1	0	1	0	0;
	1077	1071	0.00641	0.12047	0	230	0	0	1	0	1	0	0;
	1078	1071	0.00533	0.19087	0	137	0	0	1	0	1	0	0;
	1079	1071	0.00013	0.046	0	2000	0	0	1	0	1	0	0;
	1080	1071	0.01206	0.20208	0	136	0	0	1	0	1	0	0;
	1081	1071	0.00167	0.0665	0	350	0	0	1	0	1	0	0;
	3048	1079	0.0013	0.015	1.02	2300	0	0	0	0	1	0	0;
	3048	1079	0.0013	0.015	1.02	2300	0	0	0	0	1	0	0;
	1081	3058	0.0091	0.089	0.171	548	0	0	0	0	1	0	0;
	1084	3130	0.02049	0.09131	0.01339	221	0	0	0	0	1	0	0;
	1085	1086	0.03392	0.14838	0.0226	149	0	0	0	0	1	0	0;
	1090	1085	0.02018	0.13786	0.02346	221	0	0	0	0	1	0	0;
	2029	1091	0.0389	0.17144	0.0798	187	0	0	0	0	1	0	0;
	1091	2048	0.02193	0.09667	0.045	187	0	0	0	0	1	0	0;
	2098	1091	0.00554	0.02443	0.01137	187	0	0	0	0	1	0	0;
	2022	2001	0.00839	0.03697	0.01721	187	0	0	0	0	1	0	0;
	2027	2001	0.00955	0.04062	0.02032	187	0	0	0	0	1	0	0;
	2003	2002	0.0003	0.01986	0	981	0	0	1	0	1	0	0;
	2004	2002	0.00022	0.01466	0	635	0	0	1	0	1	0	0;
	2005	2002	0.00033	0.01714	0	645	0	0	1	0	1	0	0;
	2006	2002	0.00036	0.02679	0	636	0	0	1	0	1	0	0;
	2021	2002	0.00097	0.01175	0.78032	2295	0	0	0	0	1	0	0;
	2002	2101	0.00031	0.0037	0.24573	2020	0	0	0	0	1	0	0;
	2038	2003	0.00353	0.02067	0.01032	251	0	0	0	0	1	0	0;
	2003	2047	0.0013	0.0099	0.0052	310	0	0	0	0	1	0	0;
	2007	2114	0.00888	0.05207	0.026	251	0	0	0	0	1	0	0;
	2007	2122	0.00861	0.03661	0.01831	187	0	0	0	0	1	0	0;
	2014	2008	0.02253	0.09931	0.04623	187	0	0	0	0	1	0	0;
	2008	2052	0.01877	0.08271	0.0385	187	0	0	0	0	1	0	0;
	2009	2049	0.01224	0.07176	0.03583	251	0	0	0	0	1	0	0;
	2009	2082	0.00735	0.03126	0.01563	187	0	0	0	0	1	0	0;
	2109	2009	0.00725	0.03084	0.01542	250	0	0	0	0	1	0	0;
	2061	2010	0.02439	0.10748	0.05003	187	0	0	0	0	1	0	0;
	2010	2079	0.02061	0.09083	0.04228	187	0	0	0	0	1	0	0;
	2010	2091	0.02461	0.10467	0.05235	187	0	0	0	0	1	0	0;
	2012	2011	0.00044	0.03546	0	461	0	0	1	0	1	0	0;
	2013	2011	0.00043	0.02897	0	412	0	0	1	0	1	0	0;
	2127	2011	0.00108	0.01307	0.86827	2020	0	0	0	0	1	0	0;
	2012	2041	0.01245	0.05297	0.02649	187	0	0	0	0	1	0	0;
	2012	2052	0.02008	0.08851	0.0412	187	0	0	0	0	1	0	0;
	2093	2012	0.01029	0.04536	0.02111	187	0	0	0	0	1	0	0;
	2012	2123	0.00995	0.0423	0.02115	251	0	0	0	0	1	0	0;
	2014	2029	0.01859	0.07908	0.03955	187	0	0	0	0	1	0	0;
	2015	2037	0.00862	0.03799	0.01769	187	0	0	0	0	1	0	0;
	5014	2015	0.00961	0.04237	0.01972	187	0	0	0	0	1	0	0;
	2043	2016	0.00593	0.02614	0.01217	187	0	0	0	0	1	0	0;
	2069	2016	0.0084	0.03705	0.01725	187	0	0	0	0	1	0	0;
	2018	2017	0.00048	0.05045	0	271	0	0	1	0	1	0	0;
	2019	2017	0.0002	0.01182	0	454	0	0	1	0	1	0	0;
	2017	2096	0.00253	0.03068	2.03836	2020	0	0	0	0	1	0	0;
	2017	2127	0.00089	0.01081	0.71846	2020	0	0	0	0	1	0	0;
	2018	2093	0.01163	0.05125	0.02386	187	0	0	0	0	1	0	0;
	2045	2020	0.00097	0.00548	0.00295	310	0	0	0	0	1	0	0;
	2055	2020	0.00102	0.00744	0.00422	409	0	0	0	0	1	0	0;
	2022	2021	0.00034	0.01888	0	867	0	0	1	0	1	0	0;
	2023	2021	0.00054	0.03406	0	319	0	0	1	0	1	0	0;
	2024	2021	0.00036	0.02425	0	391	0	0	1	0	1	0	0;
	2113	2021	0.0001	0.00124	0.08207	2020	0	0	0	0	1	0	0;
	2022	2040	0.02207	0.09391	0.04697	187	0	0	0	0	1	0	0;
	2064	2022	0.00558	0.03156	0.01697	251	0	0	0	0	1	0	0;
	2025	2055	0.0023	0.01016	0.00473	187	0	0	0	0	1	0	0;
	2067	2025	0.00317	0.014	0.00651	187	0	0	0	0	1	0	0;
	2058	2026	0.02475	0.10526	0.05264	187	0	0	0	0	1	0	0;
	2128	2026	0.01207	0.05318	0.02475	187	0	0	0	0	1	0	0;
	2027	2090	0.01692	0.07455	0.0347	187	0	0	0	0	1	0	0;
	2028	2045	0.00363	0.02129	0.01063	251	0	0	0	0	1	0	0;
	2028	2109	0.01026	0.0452	0.02104	250	0	0	0	0	1	0	0;
	2112	2028	0.00369	0.02161	0.01079	310	0	0	0	0	1	0	0;
	2030	2106	0.0118	0.05199	0.0242	187	0	0	0	0	1	0	0;
	2122	2030	0.00737	0.0432	0.02157	251	0	0	0	0	1	0	0;
	2031	2048	0.02398	0.10567	0.04919	187	0	0	0	0	1	0	0;
	2031	2087	0.02177	0.09259	0.04631	187	0	0	0	0	1	0	0;
	2032	2114	0.01097	0.04834	0.0225	187	0	0	0	0	1	0	0;
	2122	2032	0.01414	0.06232	0.02901	187	0	0	0	0	1	0	0;
	2129	2033	0.00522	0.02298	0.0107	187	0	0	0	0	1	0	0;
	2033	5288	0.00925	0.03935	0.01968	187	0	0	0	0	1	0	0;
	2034	2043	0.00439	0.01867	0.00934	187	0	0	0	0	1	0	0;
	2046	2034	0.00468	0.01993	0.00997	187	0	0	0	0	1	0	0;
	2035	2066	0.01411	0.08272	0.04131	251	0	0	0	0	1	0	0;
	2035	2091	0.01863	0.10528	0.05663	251	0	0	0	0	1	0	0;
	2036	2055	0.00216	0.0092	0.0046	300	0	0	0	0	1	0	0;
	2036	2082	0.00236	0.01003	0.00502	250	0	0	0	0	1	0	0;
	2037	2065	0.00415	0.02434	0.01216	251	0	0	0	0	1	0	0;
	2110	2037	0.00307	0.01798	0.00898	251	0	0	0	0	1	0	0;
	2081	2038	0.00639	0.03748	0.01871	251	0	0	0	0	1	0	0;
	2039	2086	0.00845	0.03725	0.01734	187	0	0	0	0	1	0	0;
	5285	2039	0.00569	0.03334	0.01665	251	0	0	0	0	1	0	0;
	2039	5455	0.00371	0.02173	0.01085	251	0	0	0	0	1	0	0;
	2040	2114	0.02335	0.09932	0.04967	187	0	0	0	0	1	0	0;
	2121	2040	0.00894	0.03938	0.01833	187	0	0	0	0	1	0	0;
...
];
